5
-4198.42276 frame 0   xyz file generated by terachem
   C       1.7783140962    3.2360259861   -0.0362485950
   C       1.2212238064    2.5869928865    1.0911231467
   H       1.8502684674    2.2370730315    1.8795076228
   C      -0.1546890515    2.3320705307    1.1482197859
   O      -0.7909290374    1.7090877675    2.1828167026
5
-4198.42276 frame 1   xyz file generated by terachem
   C       1.7783140962    3.2360259861   -0.0362485950
   C       1.2212238064    2.5869928865    1.0911231467
   H       1.8502684674    2.2370730315    1.8795076228
   C      -0.1546890515    2.3320705307    1.1482197859
   O      -0.7909290374    1.7090877675    2.1828167026
5
-4198.42276 frame 3   xyz file generated by terachem
   C       1.7783140962    3.2360259861   -0.0362485950
   C       1.2212238064    2.5869928865    1.0911231467
   H       1.8502684674    2.2370730315    1.8795076228
   C      -0.1546890515    2.3320705307    1.1482197859
   O      -0.7909290374    1.7090877675    2.1828167026
5
-4198.42276 frame 4   xyz file generated by terachem
   C       1.7783140962    3.2360259861   -0.0362485950
   C       1.2212238064    2.5869928865    1.0911231467
   H       1.8502684674    2.2370730315    1.8795076228
   C      -0.1546890515    2.3320705307    1.1482197859
   O      -0.7909290374    1.7090877675    2.1828167026
5
-4198.42276 frame 5   xyz file generated by terachem
   C       1.7783140962    3.2360259861   -0.0362485950
   C       1.2212238064    2.5869928865    1.0911231467
   H       1.8502684674    2.2370730315    1.8795076228
   C      -0.1546890515    2.3320705307    1.1482197859
   O      -0.7909290374    1.7090877675    2.1828167026

